Circuit: * C:\Users\facun\OneDrive\Desktop\ITBA\5C TC\TP1\Ejericio 1\TP1_EJ1_Notch_Altium\Respuesta al escalon.asc

.OP point found by inspection.

Date: Tue Aug 13 15:30:32 2019
Total elapsed time: 0.059 seconds.

tnom = 27
temp = 27
method = modified trap
totiter = 2118
traniter = 2118
tranpoints = 1060
accept = 1058
rejected = 2
matrix size = 5
fillins = 0
solver = Normal
Matrix Compiler1:      10 opcodes  0.0/[0.0]/0.0
Matrix Compiler2:      29 opcodes  0.0/[0.0]/0.0

