Circuit: * C:\Users\facun\OneDrive\Desktop\ITBA\5C TC\TP1\Ejericio 1\Respuesta al escalon.asc

.OP point found by inspection.

Date: Sun Aug 11 14:10:17 2019
Total elapsed time: 0.050 seconds.

tnom = 27
temp = 27
method = modified trap
totiter = 2118
traniter = 2118
tranpoints = 1060
accept = 1058
rejected = 2
matrix size = 5
fillins = 0
solver = Normal
Matrix Compiler1: 168 bytes object code size  0.1/0.1/[0.0]
Matrix Compiler2: 355 bytes object code size  0.1/0.1/[0.0]

